30
-763.445821495178
O -2.07633891 1.35861081 -1.32323339
H -1.93579468 0.40058541 -1.56553969
H -2.77021462 1.68308297 -1.90398943
O -1.65180486 -1.99490313 1.08705276
H -2.12622587 -2.68113328 1.56485571
H -0.69793914 -2.22011779 1.16427908
O -1.65557460 -1.20862853 -1.70829987
H -0.70397915 -1.40058524 -1.86474507
H -1.82439876 -1.61134997 -0.84233973
O 2.19746262 -0.01955552 1.34711007
H 2.44292561 0.26694884 0.44864469
H 1.60256796 0.68328674 1.66857445
O 0.30572473 1.96608164 1.94217394
H -0.58560050 1.53434979 1.85820093
H 0.25203860 2.54737960 2.70585609
O -2.02126043 0.80048185 1.44640910
H -2.21616762 1.06091023 0.52803804
H -1.95513440 -0.16993742 1.41200428
O 2.37113931 0.73518345 -1.36366407
H 3.07583001 1.13088728 -1.88403414
H 1.66822162 1.43205600 -1.27460812
O 0.45210010 2.49492631 -0.86312962
H -0.43542688 2.18428068 -1.12249510
H 0.42044304 2.51977509 0.10833285
O 1.04704636 -2.36318699 1.04154932
H 1.49325646 -1.49013680 1.23091250
H 1.56101156 -3.02652482 1.51113984
O 1.03789602 -1.73435849 -1.81458315
H 1.16068328 -2.12081678 -0.93390428
H 1.55116927 -0.90818468 -1.78062719