18
-458.050243930632
O -0.35921654 0.66032868 1.70403349
H 0.48387738 0.24478184 1.46606149
H -1.00096128 0.17370798 1.16214939
O 1.77202874 -0.59659445 0.12135318
H 1.35538225 -0.06078792 -0.60578423
H 2.72228751 -0.49953465 0.01340080
O 0.04288025 2.88312174 0.12951739
H -0.54206536 3.63113699 0.27293631
H -0.17328769 2.23111583 0.82893297
O 0.31403336 0.76377541 -1.64191878
H 0.18199259 1.63209002 -1.21518887
H -0.51692626 0.29334277 -1.46887566
O 0.13037902 -2.79310762 0.00956184
H 0.16772631 -3.31339836 0.81700174
H 0.86584103 -2.15058446 0.08135296
O -1.72933868 -0.85118903 -0.37267206
H -1.20686995 -1.67534742 -0.25579395
H -2.62103595 -1.13064966 -0.59766950